<?xml version="1.0" encoding="UTF-8"?>

<!-- generated on 2021-12-26 17:50:20 by Eclipse SUMO netedit Version 1.11.0
<configuration xmlns:xsi="http://www.w3.org/2001/XMLSchema-instance" xsi:noNamespaceSchemaLocation="http://sumo.dlr.de/xsd/netconvertConfiguration.xsd">

    <input>
        <sumo-net-file value="D:\IV_final\NTU_IV_ButterFlyEffect\data\highway1226.net.xml"/>
    </input>

    <output>
        <output-file value="D:\IV_final\NTU_IV_ButterFlyEffect\data\highway1226.net.xml"/>
    </output>

    <processing>
        <geometry.min-radius.fix.railways value="false"/>
        <geometry.max-grade.fix value="false"/>
        <offset.disable-normalization value="true"/>
        <lefthand value="false"/>
    </processing>

    <junctions>
        <no-turnarounds value="true"/>
        <junctions.corner-detail value="5"/>
        <junctions.limit-turn-speed value="5.5"/>
        <rectangular-lane-cut value="false"/>
    </junctions>

    <pedestrian>
        <walkingareas value="false"/>
    </pedestrian>

    <report>
        <aggregate-warnings value="5"/>
    </report>

</configuration>
-->

<net version="1.9" junctionCornerDetail="5" limitTurnSpeed="5.50" xmlns:xsi="http://www.w3.org/2001/XMLSchema-instance" xsi:noNamespaceSchemaLocation="http://sumo.dlr.de/xsd/net_file.xsd">

    <location netOffset="0.00,0.00" convBoundary="0.00,0.00,2000.00,0.00" origBoundary="-10000000000.00,-10000000000.00,10000000000.00,10000000000.00" projParameter="!"/>

    <edge id=":J2_0" function="internal">
        <lane id=":J2_0_0" index="0" speed="13.89" length="0.10" shape="100.00,-8.00 100.00,-8.00"/>
        <lane id=":J2_0_1" index="1" speed="13.89" length="0.10" shape="100.00,-4.80 100.00,-4.80"/>
        <lane id=":J2_0_2" index="2" speed="13.89" length="0.10" shape="100.00,-1.60 100.00,-1.60"/>
    </edge>
    <edge id=":J3_0" function="internal">
        <lane id=":J3_0_0" index="0" speed="13.89" length="0.10" shape="1900.00,-8.00 1900.00,-8.00"/>
        <lane id=":J3_0_1" index="1" speed="13.89" length="0.10" shape="1900.00,-4.80 1900.00,-4.80"/>
        <lane id=":J3_0_2" index="2" speed="13.89" length="0.10" shape="1900.00,-1.60 1900.00,-1.60"/>
    </edge>
    <edge id=":J4_0" function="internal">
        <lane id=":J4_0_0" index="0" speed="13.89" length="0.10" shape="500.00,-8.00 500.00,-8.00"/>
        <lane id=":J4_0_1" index="1" speed="13.89" length="0.10" shape="500.00,-4.80 500.00,-4.80"/>
        <lane id=":J4_0_2" index="2" speed="13.89" length="0.10" shape="500.00,-1.60 500.00,-1.60"/>
    </edge>
    <edge id=":J5_0" function="internal">
        <lane id=":J5_0_0" index="0" speed="13.89" length="0.10" shape="1000.00,-8.00 1000.00,-8.00"/>
        <lane id=":J5_0_1" index="1" speed="13.89" length="0.10" shape="1000.00,-4.80 1000.00,-4.80"/>
        <lane id=":J5_0_2" index="2" speed="13.89" length="0.10" shape="1000.00,-1.60 1000.00,-1.60"/>
    </edge>
    <edge id=":J6_0" function="internal">
        <lane id=":J6_0_0" index="0" speed="13.89" length="0.10" shape="1100.00,-8.00 1100.00,-8.00"/>
        <lane id=":J6_0_1" index="1" speed="13.89" length="0.10" shape="1100.00,-4.80 1100.00,-4.80"/>
        <lane id=":J6_0_2" index="2" speed="13.89" length="0.10" shape="1100.00,-1.60 1100.00,-1.60"/>
    </edge>
    <edge id=":J7_0" function="internal">
        <lane id=":J7_0_0" index="0" speed="13.89" length="0.10" shape="1600.00,-8.00 1600.00,-8.00"/>
        <lane id=":J7_0_1" index="1" speed="13.89" length="0.10" shape="1600.00,-4.80 1600.00,-4.80"/>
        <lane id=":J7_0_2" index="2" speed="13.89" length="0.10" shape="1600.00,-1.60 1600.00,-1.60"/>
    </edge>

    <edge id="effect_area_1" from="J4" to="J5" priority="-1">
        <lane id="effect_area_1_0" index="0" speed="13.89" length="500.00" shape="500.00,-8.00 1000.00,-8.00"/>
        <lane id="effect_area_1_1" index="1" speed="13.89" length="500.00" shape="500.00,-4.80 1000.00,-4.80"/>
        <lane id="effect_area_1_2" index="2" speed="13.89" length="500.00" shape="500.00,-1.60 1000.00,-1.60"/>
    </edge>
    <edge id="effect_area_2" from="J6" to="J7" priority="-1">
        <lane id="effect_area_2_0" index="0" speed="13.89" length="500.00" shape="1100.00,-8.00 1600.00,-8.00"/>
        <lane id="effect_area_2_1" index="1" speed="13.89" length="500.00" shape="1100.00,-4.80 1600.00,-4.80"/>
        <lane id="effect_area_2_2" index="2" speed="13.89" length="500.00" shape="1100.00,-1.60 1600.00,-1.60"/>
    </edge>
    <edge id="entry" from="J0" to="J2" priority="-1">
        <lane id="entry_0" index="0" speed="13.89" length="100.00" shape="0.00,-8.00 100.00,-8.00"/>
        <lane id="entry_1" index="1" speed="13.89" length="100.00" shape="0.00,-4.80 100.00,-4.80"/>
        <lane id="entry_2" index="2" speed="13.89" length="100.00" shape="0.00,-1.60 100.00,-1.60"/>
    </edge>
    <edge id="event_area" from="J5" to="J6" priority="-1">
        <lane id="event_area_0" index="0" speed="13.89" length="100.00" shape="1000.00,-8.00 1100.00,-8.00"/>
        <lane id="event_area_1" index="1" speed="13.89" length="100.00" shape="1000.00,-4.80 1100.00,-4.80"/>
        <lane id="event_area_2" index="2" speed="13.89" length="100.00" shape="1000.00,-1.60 1100.00,-1.60"/>
    </edge>
    <edge id="exit" from="J3" to="J1" priority="-1">
        <lane id="exit_0" index="0" speed="13.89" length="100.00" shape="1900.00,-8.00 2000.00,-8.00"/>
        <lane id="exit_1" index="1" speed="13.89" length="100.00" shape="1900.00,-4.80 2000.00,-4.80"/>
        <lane id="exit_2" index="2" speed="13.89" length="100.00" shape="1900.00,-1.60 2000.00,-1.60"/>
    </edge>
    <edge id="long_road_1" from="J2" to="J4" priority="-1">
        <lane id="long_road_1_0" index="0" speed="13.89" length="400.00" shape="100.00,-8.00 500.00,-8.00"/>
        <lane id="long_road_1_1" index="1" speed="13.89" length="400.00" shape="100.00,-4.80 500.00,-4.80"/>
        <lane id="long_road_1_2" index="2" speed="13.89" length="400.00" shape="100.00,-1.60 500.00,-1.60"/>
    </edge>
    <edge id="long_road_2" from="J7" to="J3" priority="-1">
        <lane id="long_road_2_0" index="0" speed="13.89" length="300.00" shape="1600.00,-8.00 1900.00,-8.00"/>
        <lane id="long_road_2_1" index="1" speed="13.89" length="300.00" shape="1600.00,-4.80 1900.00,-4.80"/>
        <lane id="long_road_2_2" index="2" speed="13.89" length="300.00" shape="1600.00,-1.60 1900.00,-1.60"/>
    </edge>

    <junction id="J0" type="dead_end" x="0.00" y="0.00" incLanes="" intLanes="" shape="0.00,0.00 0.00,-9.60"/>
    <junction id="J1" type="dead_end" x="2000.00" y="0.00" incLanes="exit_0 exit_1 exit_2" intLanes="" shape="2000.00,-9.60 2000.00,0.00"/>
    <junction id="J2" type="priority" x="100.00" y="0.00" incLanes="entry_0 entry_1 entry_2" intLanes=":J2_0_0 :J2_0_1 :J2_0_2" shape="100.00,0.00 100.00,-9.60 100.00,0.00">
        <request index="0" response="000" foes="000" cont="0"/>
        <request index="1" response="000" foes="000" cont="0"/>
        <request index="2" response="000" foes="000" cont="0"/>
    </junction>
    <junction id="J3" type="priority" x="1900.00" y="0.00" incLanes="long_road_2_0 long_road_2_1 long_road_2_2" intLanes=":J3_0_0 :J3_0_1 :J3_0_2" shape="1900.00,0.00 1900.00,-9.60 1900.00,0.00">
        <request index="0" response="000" foes="000" cont="0"/>
        <request index="1" response="000" foes="000" cont="0"/>
        <request index="2" response="000" foes="000" cont="0"/>
    </junction>
    <junction id="J4" type="priority" x="500.00" y="0.00" incLanes="long_road_1_0 long_road_1_1 long_road_1_2" intLanes=":J4_0_0 :J4_0_1 :J4_0_2" shape="500.00,0.00 500.00,-9.60 500.00,0.00">
        <request index="0" response="000" foes="000" cont="0"/>
        <request index="1" response="000" foes="000" cont="0"/>
        <request index="2" response="000" foes="000" cont="0"/>
    </junction>
    <junction id="J5" type="priority" x="1000.00" y="0.00" incLanes="effect_area_1_0 effect_area_1_1 effect_area_1_2" intLanes=":J5_0_0 :J5_0_1 :J5_0_2" shape="1000.00,0.00 1000.00,-9.60 1000.00,0.00">
        <request index="0" response="000" foes="000" cont="0"/>
        <request index="1" response="000" foes="000" cont="0"/>
        <request index="2" response="000" foes="000" cont="0"/>
    </junction>
    <junction id="J6" type="priority" x="1100.00" y="0.00" incLanes="event_area_0 event_area_1 event_area_2" intLanes=":J6_0_0 :J6_0_1 :J6_0_2" shape="1100.00,0.00 1100.00,-9.60 1100.00,0.00">
        <request index="0" response="000" foes="000" cont="0"/>
        <request index="1" response="000" foes="000" cont="0"/>
        <request index="2" response="000" foes="000" cont="0"/>
    </junction>
    <junction id="J7" type="priority" x="1600.00" y="0.00" incLanes="effect_area_2_0 effect_area_2_1 effect_area_2_2" intLanes=":J7_0_0 :J7_0_1 :J7_0_2" shape="1600.00,0.00 1600.00,-9.60 1600.00,0.00">
        <request index="0" response="000" foes="000" cont="0"/>
        <request index="1" response="000" foes="000" cont="0"/>
        <request index="2" response="000" foes="000" cont="0"/>
    </junction>

    <connection from="effect_area_1" to="event_area" fromLane="0" toLane="0" via=":J5_0_0" dir="s" state="M"/>
    <connection from="effect_area_1" to="event_area" fromLane="1" toLane="1" via=":J5_0_1" dir="s" state="M"/>
    <connection from="effect_area_1" to="event_area" fromLane="2" toLane="2" via=":J5_0_2" dir="s" state="M"/>
    <connection from="effect_area_2" to="long_road_2" fromLane="0" toLane="0" via=":J7_0_0" dir="s" state="M"/>
    <connection from="effect_area_2" to="long_road_2" fromLane="1" toLane="1" via=":J7_0_1" dir="s" state="M"/>
    <connection from="effect_area_2" to="long_road_2" fromLane="2" toLane="2" via=":J7_0_2" dir="s" state="M"/>
    <connection from="entry" to="long_road_1" fromLane="0" toLane="0" via=":J2_0_0" dir="s" state="M"/>
    <connection from="entry" to="long_road_1" fromLane="1" toLane="1" via=":J2_0_1" dir="s" state="M"/>
    <connection from="entry" to="long_road_1" fromLane="2" toLane="2" via=":J2_0_2" dir="s" state="M"/>
    <connection from="event_area" to="effect_area_2" fromLane="0" toLane="0" via=":J6_0_0" dir="s" state="M"/>
    <connection from="event_area" to="effect_area_2" fromLane="1" toLane="1" via=":J6_0_1" dir="s" state="M"/>
    <connection from="event_area" to="effect_area_2" fromLane="2" toLane="2" via=":J6_0_2" dir="s" state="M"/>
    <connection from="long_road_1" to="effect_area_1" fromLane="0" toLane="0" via=":J4_0_0" dir="s" state="M"/>
    <connection from="long_road_1" to="effect_area_1" fromLane="1" toLane="1" via=":J4_0_1" dir="s" state="M"/>
    <connection from="long_road_1" to="effect_area_1" fromLane="2" toLane="2" via=":J4_0_2" dir="s" state="M"/>
    <connection from="long_road_2" to="exit" fromLane="0" toLane="0" via=":J3_0_0" dir="s" state="M"/>
    <connection from="long_road_2" to="exit" fromLane="1" toLane="1" via=":J3_0_1" dir="s" state="M"/>
    <connection from="long_road_2" to="exit" fromLane="2" toLane="2" via=":J3_0_2" dir="s" state="M"/>

    <connection from=":J2_0" to="long_road_1" fromLane="0" toLane="0" dir="s" state="M"/>
    <connection from=":J2_0" to="long_road_1" fromLane="1" toLane="1" dir="s" state="M"/>
    <connection from=":J2_0" to="long_road_1" fromLane="2" toLane="2" dir="s" state="M"/>
    <connection from=":J3_0" to="exit" fromLane="0" toLane="0" dir="s" state="M"/>
    <connection from=":J3_0" to="exit" fromLane="1" toLane="1" dir="s" state="M"/>
    <connection from=":J3_0" to="exit" fromLane="2" toLane="2" dir="s" state="M"/>
    <connection from=":J4_0" to="effect_area_1" fromLane="0" toLane="0" dir="s" state="M"/>
    <connection from=":J4_0" to="effect_area_1" fromLane="1" toLane="1" dir="s" state="M"/>
    <connection from=":J4_0" to="effect_area_1" fromLane="2" toLane="2" dir="s" state="M"/>
    <connection from=":J5_0" to="event_area" fromLane="0" toLane="0" dir="s" state="M"/>
    <connection from=":J5_0" to="event_area" fromLane="1" toLane="1" dir="s" state="M"/>
    <connection from=":J5_0" to="event_area" fromLane="2" toLane="2" dir="s" state="M"/>
    <connection from=":J6_0" to="effect_area_2" fromLane="0" toLane="0" dir="s" state="M"/>
    <connection from=":J6_0" to="effect_area_2" fromLane="1" toLane="1" dir="s" state="M"/>
    <connection from=":J6_0" to="effect_area_2" fromLane="2" toLane="2" dir="s" state="M"/>
    <connection from=":J7_0" to="long_road_2" fromLane="0" toLane="0" dir="s" state="M"/>
    <connection from=":J7_0" to="long_road_2" fromLane="1" toLane="1" dir="s" state="M"/>
    <connection from=":J7_0" to="long_road_2" fromLane="2" toLane="2" dir="s" state="M"/>

</net>
